/*--------------------------------*- C++ -*----------------------------------*\
  =========                 |
  \\      /  F ield         | OpenFOAM: The Open Source CFD Toolbox
   \\    /   O peration     | Website:  https://openfoam.org
    \\  /    A nd           | Version:  9
     \\/     M anipulation  |
\*---------------------------------------------------------------------------*/
FoamFile
{
    format      ascii;
    class       dictionary;
    object      blockMeshDict;
}
// * * * * * * * * * * * * * * * * * * * * * * * * * * * * * * * * * * * * * //

convertToMeters 1;

vertices
(
    (0 0.5 0)
    (0 1 0)
    (0.5 0 0)
    (0.5 0.5 0)
    (0.5 1 0)
    (5 0 0)
    (5 0.5 0)
    (5 1 0)
    
    (0 0.5 0.1)
    (0 1 0.1)
    (0.5 0 0.1)
    (0.5 0.5 0.1)
    (0.5 1 0.1)
    (5 0 0.1)
    (5 0.5 0.1)
    (5 1 0.1)
);

blocks
(
    hex (0 3 4 1 8 11 12 9) (5 5 1) simpleGrading (1 1 1)
    hex (3 6 7 4 11 14 15 12) (45 5 1) simpleGrading (1 1 1)
    hex (2 5 6 3 10 13 14 11) (45 5 1) simpleGrading (1 1 1)
);

edges
(
);

boundary
(
    inlet
    {
        type patch;
        faces
        (
            (0 1 9 8)
        );
    }
    outlet
    {
    	type patch;
    	faces
    	(
            (6 14 15 7)
            (5 13 14 6)
        );
    }
    fixedWalls
    {
        type wall;
        faces
        (
            (0 8 11 3)
            (2 3 11 10)
            (2 10 13 5)
            (4 7 15 12)
            (1 4 12 9)
        );
    }
    frontAndBack
    {
        type empty;
        faces
        (
            (0 3 4 1)
            (4 3 6 7)
            (3 2 5 6)
            (8 9 12 11)
            (11 12 15 14)
            (10 11 14 13)
        );
    }
);

mergePatchPairs
(
);

// ************************************************************************* //
